1000.0 300.0 1.0
   0.0 300.0 1.0 1.0 0.0
 450.0 300.0 1.0 1.0 0.0
 550.0 300.0 1.0 1.0 0.0
1550.0 300.0 1.0 1.0 0.0
