1000 280.0 0
0.0 280.0 0 10.0 0
0.1 280.0002854231832 0 10.0 0
0.2025000000000004 280.00057798224793 0 10.0 0
0.30756249999999974 280.0008778556065 0 10.0 0
0.41525156249999967 280.00118522613235 0 10.0 0
0.5256328515624996 280.0015002812715 0 10.0 0
0.6387736728515622 280.0018232131571 0 10.0 0
0.7547430146728518 280.0021542187263 0 10.0 0
0.8736115900396721 280.00249349984085 0 10.0 0
0.9954518797906644 280.0028412634099 0 10.0 0
1.1203381767854306 280.0031977215164 0 10.0 0
1.2483466312050666 280.00356309154654 0 10.0 0
1.3795552969851934 280.0039375963223 0 10.0 0
1.5140441794098223 280.0043214642372 0 10.0 0
1.6518952838950687 280.0047149293962 0 10.0 0
1.7931926659924449 280.00511823175793 0 10.0 0
1.9380224826422559 280.0055316172816 0 10.0 0
2.086473044708312 280.00595533807666 0 10.0 0
2.2386348708260195 280.0063896525571 0 10.0 0
2.3946007425966696 280.00683482559873 0 10.0 0
2.5544657611615857 280.00729112870084 0 10.0 0
2.718327405190626 280.0077588401523 0 10.0 0
2.8862855903203912 280.0082382452008 0 10.0 0
3.0584427300784007 280.0087296362273 0 10.0 0
3.23490379833036 280.0092333129245 0 10.0 0
3.4157763932886196 280.0097495824793 0 10.0 0
3.601170803120834 280.0102787597609 0 10.0 0
3.791200073198855 280.0108211675124 0 10.0 0
3.9859800750288263 280.01137713654816 0 10.0 0
4.185629576904547 280.01194700595545 0 10.0 0
4.390270316327159 280.01253112330147 0 10.0 0
4.6000270742353395 280.01312984484576 0 10.0 0
4.815027751091222 280.01374353575727 0 10.0 0
5.035403444868502 280.0143725703374 0 10.0 0
5.261288530990213 280.0150173322486 0 10.0 0
5.492820744264969 280.0156782147483 0 10.0 0
5.730141262871593 280.01635562092923 0 10.0 0
5.973394794443381 280.01704996396546 0 10.0 0
6.222729664304466 280.0177616673644 0 10.0 0
6.4782979059120755 280.01849116522567 0 10.0 0
6.740255353559877 280.0192389025057 0 10.0 0
7.008761737398875 280.02000533529 0 10.0 0
7.283980780833844 280.020790931071 0 10.0 0
7.566080300354691 280.02159616903384 0 10.0 0
7.855232307863558 280.02242154034894 0 10.0 0
8.151613115560147 280.02326754847167 0 10.0 0
8.455403443449148 280.02413470945004 0 10.0 0
8.766788529535377 280.0250235522399 0 10.0 0
9.08595824277376 280.02593461902745 0 10.0 0
9.413107198843104 280.0268684655609 0 10.0 0
9.74843487881418 280.0278256614897 0 10.0 0
10.092145750784534 280.02880679071245 0 10.0 0
10.444449394554146 280.0298124517333 0 10.0 0
10.805560629417998 280.03084325802774 0 10.0 0
11.175699645153447 280.0318998384176 0 10.0 0
11.555092136282285 280.0329828374544 0 10.0 0
11.94396943968934 280.034092915814 0 10.0 0
12.342568675681571 280.0352307506994 0 10.0 0
12.751132892573612 280.03639703625504 0 10.0 0
13.169911214887948 280.03759248399047 0 10.0 0
13.599158995260147 280.0388178232156 0 10.0 0
14.039137970141649 280.0400738014857 0 10.0 0
14.490116419395187 280.0413611850586 0 10.0 0
14.952369329880069 280.0426807593629 0 10.0 0
15.42617856312707 280.0440333294778 0 10.0 0
15.911833027205246 280.04541972062543 0 10.0 0
16.409628852885376 280.0468407786747 0 10.0 0
16.919869574207507 280.04829737065893 0 10.0 0
17.442866313562693 280.04979038530524 0 10.0 0
17.978937971401756 280.0513207335784 0 10.0 0
18.5284114206868 280.05288934923726 0 10.0 0
19.09162170620397 280.05449718940594 0 10.0 0
19.668912248859066 280.0561452351588 0 10.0 0
20.260635055080538 280.05783449212055 0 10.0 0
20.86715093145755 280.05956599108094 0 10.0 0
21.488829704743992 280.06134078862533 0 10.0 0
22.12605044736259 280.0631599677809 0 10.0 0
22.77920170854665 280.065024638679 0 10.0 0
23.448681751260317 280.066935939234 0 10.0 0
24.134898795041824 280.0688950358398 0 10.0 0
24.838271264917864 280.0709031240829 0 10.0 0
25.559228046540813 280.0729614294745 0 10.0 0
26.298208747704326 280.07507120819986 0 10.0 0
27.055663966396935 280.07723374788713 0 10.0 0
27.832055565556853 280.0794503683956 0 10.0 0
28.627856954695773 280.08172242262316 0 10.0 0
29.443553378563166 280.08405129733467 0 10.0 0
30.27964221302724 280.08643841401073 0 10.0 0
31.136633268352917 280.088885229718 0 10.0 0
32.015049100061745 280.09139323800144 0 10.0 0
32.915425327563284 280.0939639697987 0 10.0 0
33.83831096075236 280.0965989943777 0 10.0 0
34.78426873477117 280.099299920298 0 10.0 0
35.75387545314044 280.10206839639557 0 10.0 0
36.74772233946895 280.1049061127937 0 10.0 0
37.76641539795567 280.10781480193776 0 10.0 0
38.81057578290455 280.11079623965725 0 10.0 0
39.88084017747717 280.1138522462537 0 10.0 0
40.97786118191409 280.1169846876168 0 10.0 0
42.10230771146194 280.1201954763679 0 10.0 0
43.25486540424848 280.1234865730323 0 10.0 0
44.436237039354694 280.12685998724226 0 10.0 0
45.64714296533856 280.1303177789681 0 10.0 0
46.88832153947201 280.1338620597829 0 10.0 0
48.16052957795882 280.13749499415684 0 10.0 0
49.46454281740778 280.1412188007856 0 10.0 0
50.80115638784297 280.14503575395156 0 10.0 0
52.17118529753905 280.1489481849195 0 10.0 0
53.575464929977514 280.15295848336774 0 10.0 0
55.01485155322695 280.1570690988547 0 10.0 0
56.49022284205762 280.16128254232365 0 10.0 0
58.00247841310905 280.16560138764385 0 10.0 0
59.55254037343678 280.17002827319186 0 10.0 0
61.141353882772684 280.17456590347274 0 10.0 0
62.769887729842 280.17921705078084 0 10.0 0
64.43913492308803 280.1839845569045 0 10.0 0
66.15011329616524 280.1888713348722 0 10.0 0
67.90386612856936 280.1938803707438 0 10.0 0
69.70146278178358 280.19901472544655 0 10.0 0
71.54399935132817 280.20427753665786 0 10.0 0
73.43259933511136 280.2096720207354 0 10.0 0
75.36841431848914 280.2152014746963 0 10.0 0
77.35262467645137 280.2208692782464 0 10.0 0
79.38644029336264 280.2266788958605 0 10.0 0
81.4711013006967 280.2326338789161 0 10.0 0
83.60787883321412 280.23873786788 0 10.0 0
85.79807580404447 280.24499459455166 0 10.0 0
88.04302769914558 280.25140788436255 0 10.0 0
90.3441033916242 280.2579816587337 0 10.0 0
92.7027059764148 280.26471993749396 0 10.0 0
95.12027362582515 280.27162684135845 0 10.0 0
97.59828046647078 280.27870659447115 0 10.0 0
100.13823747813255 280.28596352701084 0 10.0 0
102.74169341508585 280.29340207786424 0 10.0 0
105.41023575046297 280.30102679736643 0 10.0 0
108.14549164422455 280.30884235011155 0 10.0 0
110.94912893533015 280.31685351783415 0 10.0 0
113.82285715871338 280.32506520236484 0 10.0 0
116.76842858768123 280.33348242866043 0 10.0 0
119.78763930237324 280.3421103479114 0 10.0 0
122.88233028493255 280.35095424072904 0 10.0 0
126.05438854205585 280.3600195204131 0 10.0 0
129.30574825560723 280.3693117363035 0 10.0 0
132.63839196199743 280.3788365772167 0 10.0 0
136.05435176104734 280.3885998749707 0 10.0 0
139.55571055507352 280.39860760799974 0 10.0 0
143.14460331895032 280.40886590506085 0 10.0 0
146.8232184019241 280.4193810490362 0 10.0 0
150.59379886197218 280.4301594808318 0 10.0 0
154.45864383352148 280.44120780337636 0 10.0 0
158.42010992935948 280.452532785723 0 10.0 0
162.48061267759346 280.46414136725514 0 10.0 0
166.64262799453329 280.476040662001 0 10.0 0
170.9086936943966 280.4882379630587 0 10.0 0
175.28141103675648 280.50074074713444 0 10.0 0
179.7634463126754 280.5135566791983 0 10.0 0
184.35753247049226 280.52669361725845 0 10.0 0
189.06647078225453 280.5401596172592 0 10.0 0
193.8931325518109 280.5539629381048 0 10.0 0
198.84046086560616 280.56811204681264 0 10.0 0
203.91147238724628 280.5826156237992 0 10.0 0
209.10925919692744 280.59748256830255 0 10.0 0
214.43699067685063 280.61272200394484 0 10.0 0
219.89791544377184 280.62834328443853 0 10.0 0
225.49536332986614 280.6443559994399 0 10.0 0
231.23274741311275 280.6607699805547 0 10.0 0
237.11356609844054 280.6775953074986 0 10.0 0
243.14140525090153 280.69484231441777 0 10.0 0
249.31994038217408 280.71252159637356 0 10.0 0
255.65293889172838 280.7306440159954 0 10.0 0
262.14426236402153 280.7492207103062 0 10.0 0
268.7978689231221 280.76826309772656 0 10.0 0
275.6178156462001 280.7877828852602 0 10.0 0
282.6082610373551 280.8077920758668 0 10.0 0
289.77346756328893 280.8283029760282 0 10.0 0
297.1178042523712 280.8493282035113 0 10.0 0
304.6457493586804 280.8708806953341 0 10.0 0
312.3618930926474 280.89297371594034 0 10.0 0
320.27094041996355 280.91562086558883 0 10.0 0
328.3777139304626 280.93883608896186 0 10.0 0
336.6871567787241 280.9626336840008 0 10.0 0
345.2043356981922 280.987028310973 0 10.0 0
353.934444090647 281.01203500177803 0 10.0 0
362.8828051929131 281.037669169499 0 10.0 0
372.05487532273594 281.0639466182061 0 10.0 0
381.4562472058043 281.09088355301884 0 10.0 0
391.09265338594935 281.1184965904347 0 10.0 0
400.96996972059804 281.14680276893154 0 10.0 0
411.09421896361295 281.175819559851 0 10.0 0
421.4715744377033 281.20556487857107 0 10.0 0
432.10836379864577 281.2360570959763 0 10.0 0
443.0110728936119 281.26731505023287 0 10.0 0
454.18634971595213 281.2993580588782 0 10.0 0
465.64100845885093 281.33220593123383 0 10.0 0
477.38203367032213 281.36587898114976 0 10.0 0
489.4165845120802 281.40039804009143 0 10.0 0
501.75199912488216 281.4357844705767 0 10.0 0
514.3957991030043 281.47206017997536 0 10.0 0
527.3556940805793 281.50924763467975 0 10.0 0
540.6395864325937 281.54736987465765 0 10.0 0
554.2555760934084 281.5864505283985 0 10.0 0
568.2119654957436 281.62651382826465 0 10.0 0
582.5172646331371 281.66758462625876 0 10.0 0
597.1801962489656 281.70968841021937 0 10.0 0
612.2097011551897 281.75285132045786 0 10.0 0
627.6149436840693 281.7971001668491 0 10.0 0
643.4053172761709 281.842462446389 0 10.0 0
659.5904502080751 281.88896636123326 0 10.0 0
676.1802114632769 281.93664083723075 0 10.0 0
693.1847167498589 281.9855155429666 0 10.0 0
710.6143346686054 282.03562090933053 0 10.0 0
728.4796930353203 282.08698814962486 0 10.0 0
746.7916853612032 282.1396492802297 0 10.0 0
765.5614774952332 282.19363714184107 0 10.0 0
784.8005144326141 282.2489854212994 0 10.0 0
804.5205272934294 282.3057286740267 0 10.0 0
824.733540475765 282.36390234709046 0 10.0 0
845.4518789876591 282.42354280291306 0 10.0 0
866.6881759623506 282.4846873436469 0 10.0 0
888.4553803614091 282.54737423623595 0 10.0 0
910.7667648704441 282.61164273818355 0 10.0 0
933.6359339922054 282.6775331240497 0 10.0 0
957.0768323420104 282.74508671270013 0 10.0 0
981.1037531505606 282.8143458953295 0 10.0 0
1005.7313469793245 282.88535416428437 0 10.0 0
1030.9746306538077 282.95815614271066 0 10.0 0
1056.8489964201526 283.03279761505047 0 10.0 0
1083.3702213306562 283.1093255584171 0 10.0 0
1110.5544768639224 283.18778817487464 0 10.0 0
1138.4183387855205 283.2682349246513 0 10.0 0
1166.9787972551587 283.35071656031744 0 10.0 0
1196.2532671865374 283.4352851619577 0 10.0 0
1226.2595988662006 283.521994173371 0 10.0 0
1257.0160888378557 283.6108984393311 0 10.0 0
1288.5414910588017 283.7020542439415 0 10.0 0
1320.8550283352718 283.79551935012313 0 10.0 0
1353.9764040436535 283.89135304026865 0 10.0 0
1387.9258141447447 283.98961615810504 0 10.0 0
1422.7239594983632 284.0903711518034 0 10.0 0
1458.3920584858224 284.193682118377 0 10.0 0
1494.9518599479677 284.29961484941236 0 10.0 0
1532.4256564466666 284.4082368781774 0 10.0 0
1570.8362978578332 284.51961752815316 0 10.0 0
1610.2072053042787 284.6338279630384 0 10.0 0
1650.5623854368857 284.7509412382772 0 10.0 0
1691.9264450728078 284.8710323541616 0 10.0 0
1734.3246061996279 284.99417831056445 0 10.0 0
1777.7827213546182 285.12045816335876 0 10.0 0
1822.3272893884837 285.24995308258264 0 10.0 0
1867.9854716231953 285.3827464124109 0 10.0 0
1914.7851084137753 285.51892373299813 0 10.0 0
1962.7547361241195 285.6585729242582 0 10.0 0
2011.9236045272223 285.8017842316505 0 10.0 0
2062.3216946404023 285.9486503340446 0 10.0 0
2113.9797370064125 286.0992664137383 0 10.0 0
2166.9292304315727 286.2537302287069 0 10.0 0
2221.2024611923616 286.4121421871661 0 10.0 0
2276.832522722171 286.5746054245321 0 10.0 0
2333.8533357902243 286.7412258828682 0 10.0 0
2392.2996691849803 286.91211239290965 0 10.0 0
2452.207160914604 287.0873767587634 0 10.0 0
2513.612339937469 287.2671338453827 0 10.0 0
2576.552648435906 287.451501668921 0 10.0 0
2641.066464646803 287.64060149007497 0 10.0 0
2707.1931262629732 287.83455791053 0 10.0 0
2774.972954419547 288.0334989726281 0 10.0 0
2844.447278280036 288.23755626238085 0 10.0 0
2915.6584602370363 288.44686501595953 0 10.0 0
2988.6499217429614 288.6615642297958 0 10.0 0
3063.4661697865354 288.88179677443617 0 10.0 0
3140.1528240311986 289.1077095122981 0 10.0 0
3218.7566446319784 289.3394534194821 0 10.0 0
3299.3255607477777 289.5771837118025 0 10.0 0
3381.9086997664717 289.8210599752064 0 10.0 0
3466.556417260633 290.0712463007573 0 10.0 0
3553.3203276921486 290.32791142436963 0 10.0 0
3642.253335884452 290.59122887148874 0 10.0 0
3733.4096692815633 290.86137710691895 0 10.0 0
3826.844911013602 291.138539690013 0 10.0 0
3922.6160337889414 291.42290543544647 0 10.0 0
4020.781434633665 291.71466857981005 0 10.0 0
4121.400970499507 292.014028954266 0 10.0 0
4224.535994761994 292.32119216352464 0 10.0 0
4330.249394631042 292.6363697714105 0 10.0 0
4438.605629496818 292.9597794933015 0 10.0 0
4549.670770234238 293.2916453957368 0 10.0 0
4663.512539490094 293.6321981035045 0 10.0 0
4780.2003529773465 293.98167501453656 0 10.0 0
4899.805361801779 294.34032052295316 0 10.0 0
5022.400495846823 294.7083862506168 0 10.0 0
5148.060508242993 295.08613128757526 0 10.0 0
5276.862020949068 295.47382244178937 0 10.0 0
5408.883571472794 295.8717344985659 0 10.0 0
5544.205660759612 296.28015049013305 0 10.0 0
5682.910802278603 296.69936197582115 0 10.0 0
5825.083572335568 297.1296693333354 0 10.0 0
5970.810661643956 297.57138206163137 0 10.0 0
6120.180928185055 298.02481909593195 0 10.0 0
6273.285451389681 298.49030913545323 0 10.0 0
6430.217587674422 298.9681909844347 0 10.0 0
6591.073027366282 299.4588139071047 0 10.0 0
6755.949853050439 299.96253799724184 0 10.0 0
6924.948599376699 300.47973456303237 0 10.0 0
7098.172314361116 301.010786527959 0 10.0 0
7275.726622220143 301.556088848498 0 10.0 0
7457.719787775645 302.116048949444 0 10.0 0
7644.262782470037 302.6910871777273 0 10.0 0
7835.469352031788 303.2816372756358 0 10.0 0
8031.456085832581 303.8881468744052 0 10.0 0
8232.342487978394 304.51107800919635 0 10.0 0
8438.251050177852 305.1509076565336 0 10.0 0
8649.3073264323 305.80812829534153 0 10.0 0
8865.640009593108 306.4832484927814 0 10.0 0
9087.381009832932 307.1767935161584 0 10.0 0
9314.665535078755 307.8893059722422 0 10.0 0
9547.632173455724 308.62134647542547 0 10.0 0
9786.422977792115 309.37349434622405 0 10.0 0
10031.183552236918 310.1463483417141 0 10.0 0
10282.063141042841 310.94052741959416 0 10.0 0
10539.21471956891 311.75667153766244 0 10.0 0
10802.795087558132 312.5954424906045 0 10.0 0
11072.964964747083 313.45752478610336 0 10.0 0
11349.889088865759 314.34362656240455 0 10.0 0
11633.736316087403 315.25448054959855 0 10.0 0
11924.679723989588 316.1908450770234 0 10.0 0
12222.896717089325 317.1535051293375 0 10.0 0
12528.569135016558 318.1432734539706 0 10.0 0
12841.883363391971 319.1609917228328 0 10.0 0
13163.030447476769 320.20753175133905 0 10.0 0
13492.206208663685 321.283796778003 0 10.0 0
13829.611363880278 322.3907228080605 0 10.0 0
14175.451647977285 323.5292800248039 0 10.0 0
14529.937939176712 324.7004742725467 0 10.0 0
14893.286387656131 325.9053486153936 0 10.0 0
15265.718547347533 327.1449849762602 0 10.0 0
15647.461511031219 328.420505860883 0 10.0 0
16038.748048807 329.73307617187135 0 10.0 0
16439.81675002717 331.0839051181904 0 10.0 0
16850.91216877785 332.4742482258241 0 10.0 0
17272.284972997295 333.9054094557582 0 10.0 0
17704.192097322226 335.3787434358355 0 10.0 0
18146.89689975528 336.8956578134882 0 10.0 0
18600.669322249163 338.4576157368315 0 10.0 0
19065.786055305387 340.0661384721208 0 10.0 0
19542.53070668802 341.7228081661354 0 10.0 0
20031.19397435522 343.42927076264965 0 10.0 0
20532.0738237141 345.1872390828026 0 10.0 0
21045.47566930695 346.9984960798741 0 10.0 0
21571.71256103962 348.86489827972895 0 10.0 0
22111.10537506561 350.78837941900207 0 10.0 0
22663.983009442247 352.7709542939772 0 10.0 0
23230.682584678303 354.81472283405583 0 10.0 0
23811.549649295255 356.92187441474147 0 10.0 0
24406.93839052764 359.09469242616615 0 10.0 0
25017.211850290827 361.33555911438987 0 10.0 0
25642.742146548095 363.64696071399436 0 10.0 0
26283.910700211793 366.0314928919021 0 10.0 0
26941.108467717087 368.4918665238687 0 10.0 0
27614.736179410014 371.03091382674876 0 10.0 0
28305.204583895258 373.6515948714241 0 10.0 0
29012.934698492638 376.357004503226 0 10.0 0
29738.35806595495 379.1503796987907 0 10.0 0
30481.917017603824 382.03510739058225 0 10.0 0
