1000 300 0
0     300         0 10 0
21000 300.2142857 0 10 0
