1000 300 0
0     300      0 10 0
21000 364.2202 0 10 0
