1015. 297.9 16.0
   0.0 297.9 16.0 -9.9 -3.8
 740.0 297.9 13.8 -8.42 -3.8
3260.0 312.7  2.40 -3.38 -3.8
4000.0 317.0  1.80 -1.9 -3.8
