1000 300 0
   0.0000000000000000        300.00000000000000        0.0000000000000000        10.000000000000000        0.0000000000000000     
   20.000000000000000        300.06123073540255        0.0000000000000000        10.000000000000000        0.0000000000000000     
   40.000000000000000        300.12247396814826        0.0000000000000000        10.000000000000000        0.0000000000000000     
   60.000000000000000        300.18372970078792        0.0000000000000000        10.000000000000000        0.0000000000000000     
   80.000000000000000        300.24499793587279        0.0000000000000000        10.000000000000000        0.0000000000000000     
   100.00000000000000        300.30627867595456        0.0000000000000000        10.000000000000000        0.0000000000000000     
   120.00000000000000        300.36757192358567        0.0000000000000000        10.000000000000000        0.0000000000000000     
   140.00000000000000        300.42887768131891        0.0000000000000000        10.000000000000000        0.0000000000000000     
   160.00000000000000        300.49019595170756        0.0000000000000000        10.000000000000000        0.0000000000000000     
   180.00000000000000        300.55152673730544        0.0000000000000000        10.000000000000000        0.0000000000000000     
   200.00000000000000        300.61287004066708        0.0000000000000000        10.000000000000000        0.0000000000000000     
   220.00000000000000        300.67422586434725        0.0000000000000000        10.000000000000000        0.0000000000000000     
   240.00000000000000        300.73559421090141        0.0000000000000000        10.000000000000000        0.0000000000000000     
   260.00000000000000        300.79697508288558        0.0000000000000000        10.000000000000000        0.0000000000000000     
   280.00000000000000        300.85836848285624        0.0000000000000000        10.000000000000000        0.0000000000000000     
   300.00000000000000        300.91977441337025        0.0000000000000000        10.000000000000000        0.0000000000000000     
   320.00000000000000        300.98119287698529        0.0000000000000000        10.000000000000000        0.0000000000000000     
   340.00000000000000        301.04262387625920        0.0000000000000000        10.000000000000000        0.0000000000000000     
   360.00000000000000        301.10406741375073        0.0000000000000000        10.000000000000000        0.0000000000000000     
   380.00000000000000        301.16552349201885        0.0000000000000000        10.000000000000000        0.0000000000000000     
   400.00000000000000        301.22699211362323        0.0000000000000000        10.000000000000000        0.0000000000000000     
   420.00000000000000        301.28847328112391        0.0000000000000000        10.000000000000000        0.0000000000000000     
   440.00000000000000        301.34996699708165        0.0000000000000000        10.000000000000000        0.0000000000000000     
   460.00000000000000        301.41147326405752        0.0000000000000000        10.000000000000000        0.0000000000000000     
   480.00000000000000        301.47299208461322        0.0000000000000000        10.000000000000000        0.0000000000000000     
   500.00000000000000        301.53452346131104        0.0000000000000000        10.000000000000000        0.0000000000000000     
   520.00000000000000        301.59606739671369        0.0000000000000000        10.000000000000000        0.0000000000000000     
   540.00000000000000        301.65762389338443        0.0000000000000000        10.000000000000000        0.0000000000000000     
   560.00000000000000        301.71919295388699        0.0000000000000000        10.000000000000000        0.0000000000000000     
   580.00000000000000        301.78077458078570        0.0000000000000000        10.000000000000000        0.0000000000000000     
   600.00000000000000        301.84236877664551        0.0000000000000000        10.000000000000000        0.0000000000000000     
   620.00000000000000        301.90397554403165        0.0000000000000000        10.000000000000000        0.0000000000000000     
   640.00000000000000        301.96559488551003        0.0000000000000000        10.000000000000000        0.0000000000000000     
   660.00000000000000        302.02722680364701        0.0000000000000000        10.000000000000000        0.0000000000000000     
   680.00000000000000        302.08887130100965        0.0000000000000000        10.000000000000000        0.0000000000000000     
   700.00000000000000        302.15052838016516        0.0000000000000000        10.000000000000000        0.0000000000000000     
   720.00000000000000        302.21219804368184        0.0000000000000000        10.000000000000000        0.0000000000000000     
   740.00000000000000        302.27388029412793        0.0000000000000000        10.000000000000000        0.0000000000000000     
   760.00000000000000        302.33557513407254        0.0000000000000000        10.000000000000000        0.0000000000000000     
   780.00000000000000        302.39728256608527        0.0000000000000000        10.000000000000000        0.0000000000000000     
   800.00000000000000        302.45900259273606        0.0000000000000000        10.000000000000000        0.0000000000000000     
   820.00000000000000        302.52073521659565        0.0000000000000000        10.000000000000000        0.0000000000000000     
   840.00000000000000        302.58248044023503        0.0000000000000000        10.000000000000000        0.0000000000000000     
   860.00000000000000        302.64423826622601        0.0000000000000000        10.000000000000000        0.0000000000000000     
   880.00000000000000        302.70600869714059        0.0000000000000000        10.000000000000000        0.0000000000000000     
   900.00000000000000        302.76779173555161        0.0000000000000000        10.000000000000000        0.0000000000000000     
   920.00000000000000        302.82958738403215        0.0000000000000000        10.000000000000000        0.0000000000000000     
   940.00000000000000        302.89139564515608        0.0000000000000000        10.000000000000000        0.0000000000000000     
   960.00000000000000        302.95321652149755        0.0000000000000000        10.000000000000000        0.0000000000000000     
   980.00000000000000        303.01505001563152        0.0000000000000000        10.000000000000000        0.0000000000000000     
   1000.0000000000000        303.07689613013315        0.0000000000000000        10.000000000000000        0.0000000000000000     
   1020.0000000000000        303.13875486757837        0.0000000000000000        10.000000000000000        0.0000000000000000     
   1040.0000000000000        303.20062623054355        0.0000000000000000        10.000000000000000        0.0000000000000000     
   1060.0000000000000        303.26251022160557        0.0000000000000000        10.000000000000000        0.0000000000000000     
   1080.0000000000000        303.32440684334188        0.0000000000000000        10.000000000000000        0.0000000000000000     
   1100.0000000000000        303.38631609833038        0.0000000000000000        10.000000000000000        0.0000000000000000     
   1120.0000000000000        303.44823798914962        0.0000000000000000        10.000000000000000        0.0000000000000000     
   1140.0000000000000        303.51017251837851        0.0000000000000000        10.000000000000000        0.0000000000000000     
   1160.0000000000000        303.57211968859673        0.0000000000000000        10.000000000000000        0.0000000000000000     
   1180.0000000000000        303.63407950238417        0.0000000000000000        10.000000000000000        0.0000000000000000     
   1200.0000000000000        303.69605196232152        0.0000000000000000        10.000000000000000        0.0000000000000000     
   1220.0000000000000        303.75803707098987        0.0000000000000000        10.000000000000000        0.0000000000000000     
   1240.0000000000000        303.82003483097083        0.0000000000000000        10.000000000000000        0.0000000000000000     
   1260.0000000000000        303.88204524484661        0.0000000000000000        10.000000000000000        0.0000000000000000     
   1280.0000000000000        303.94406831519984        0.0000000000000000        10.000000000000000        0.0000000000000000     
   1300.0000000000000        304.00610404461372        0.0000000000000000        10.000000000000000        0.0000000000000000     
   1320.0000000000000        304.06815243567212        0.0000000000000000        10.000000000000000        0.0000000000000000     
   1340.0000000000000        304.13021349095919        0.0000000000000000        10.000000000000000        0.0000000000000000     
   1360.0000000000000        304.19228721305984        0.0000000000000000        10.000000000000000        0.0000000000000000     
   1380.0000000000000        304.25437360455925        0.0000000000000000        10.000000000000000        0.0000000000000000     
   1400.0000000000000        304.31647266804339        0.0000000000000000        10.000000000000000        0.0000000000000000     
   1420.0000000000000        304.37858440609864        0.0000000000000000        10.000000000000000        0.0000000000000000     
   1440.0000000000000        304.44070882131189        0.0000000000000000        10.000000000000000        0.0000000000000000     
   1460.0000000000000        304.50284591627053        0.0000000000000000        10.000000000000000        0.0000000000000000     
   1480.0000000000000        304.56499569356259        0.0000000000000000        10.000000000000000        0.0000000000000000     
   1500.0000000000000        304.62715815577656        0.0000000000000000        10.000000000000000        0.0000000000000000     
   1520.0000000000000        304.68933330550141        0.0000000000000000        10.000000000000000        0.0000000000000000     
   1540.0000000000000        304.75152114532676        0.0000000000000000        10.000000000000000        0.0000000000000000     
   1560.0000000000000        304.81372167784269        0.0000000000000000        10.000000000000000        0.0000000000000000     
   1580.0000000000000        304.87593490563972        0.0000000000000000        10.000000000000000        0.0000000000000000     
   1600.0000000000000        304.93816083130912        0.0000000000000000        10.000000000000000        0.0000000000000000     
   1620.0000000000000        305.00039945744243        0.0000000000000000        10.000000000000000        0.0000000000000000     
   1640.0000000000000        305.06265078663193        0.0000000000000000        10.000000000000000        0.0000000000000000     
   1660.0000000000000        305.12491482147033        0.0000000000000000        10.000000000000000        0.0000000000000000     
   1680.0000000000000        305.18719156455086        0.0000000000000000        10.000000000000000        0.0000000000000000     
   1700.0000000000000        305.24948101846729        0.0000000000000000        10.000000000000000        0.0000000000000000     
   1720.0000000000000        305.31178318581397        0.0000000000000000        10.000000000000000        0.0000000000000000     
   1740.0000000000000        305.37409806918572        0.0000000000000000        10.000000000000000        0.0000000000000000     
   1760.0000000000000        305.43642567117797        0.0000000000000000        10.000000000000000        0.0000000000000000     
   1780.0000000000000        305.49876599438647        0.0000000000000000        10.000000000000000        0.0000000000000000     
   1800.0000000000000        305.56111904140784        0.0000000000000000        10.000000000000000        0.0000000000000000     
   1820.0000000000000        305.62348481483895        0.0000000000000000        10.000000000000000        0.0000000000000000     
   1840.0000000000000        305.68586331727727        0.0000000000000000        10.000000000000000        0.0000000000000000     
   1860.0000000000000        305.74825455132083        0.0000000000000000        10.000000000000000        0.0000000000000000     
   1880.0000000000000        305.81065851956822        0.0000000000000000        10.000000000000000        0.0000000000000000     
   1900.0000000000000        305.87307522461850        0.0000000000000000        10.000000000000000        0.0000000000000000     
   1920.0000000000000        305.93550466907129        0.0000000000000000        10.000000000000000        0.0000000000000000     
   1940.0000000000000        305.99794685552678        0.0000000000000000        10.000000000000000        0.0000000000000000     
   1960.0000000000000        306.06040178658554        0.0000000000000000        10.000000000000000        0.0000000000000000     
   1980.0000000000000        306.12286946484886        0.0000000000000000        10.000000000000000        0.0000000000000000     
   2000.0000000000000        306.18534989291840        0.0000000000000000        10.000000000000000        0.0000000000000000     
   2020.0000000000000        306.24784307339650        0.0000000000000000        10.000000000000000        0.0000000000000000     
   2040.0000000000000        306.31034900888591        0.0000000000000000        10.000000000000000        0.0000000000000000     
   2060.0000000000000        306.37286770198995        0.0000000000000000        10.000000000000000        0.0000000000000000     
   2080.0000000000000        306.43539915531261        0.0000000000000000        10.000000000000000        0.0000000000000000     
   2100.0000000000000        306.49794337145806        0.0000000000000000        10.000000000000000        0.0000000000000000     
   2120.0000000000000        306.56050035303144        0.0000000000000000        10.000000000000000        0.0000000000000000     
   2140.0000000000000        306.62307010263805        0.0000000000000000        10.000000000000000        0.0000000000000000     
   2160.0000000000000        306.68565262288388        0.0000000000000000        10.000000000000000        0.0000000000000000     
   2180.0000000000000        306.74824791637559        0.0000000000000000        10.000000000000000        0.0000000000000000     
   2200.0000000000000        306.81085598572014        0.0000000000000000        10.000000000000000        0.0000000000000000     
   2220.0000000000000        306.87347683352510        0.0000000000000000        10.000000000000000        0.0000000000000000     
   2240.0000000000000        306.93611046239863        0.0000000000000000        10.000000000000000        0.0000000000000000     
   2260.0000000000000        306.99875687494927        0.0000000000000000        10.000000000000000        0.0000000000000000     
   2280.0000000000000        307.06141607378640        0.0000000000000000        10.000000000000000        0.0000000000000000     
   2300.0000000000000        307.12408806151950        0.0000000000000000        10.000000000000000        0.0000000000000000     
   2320.0000000000000        307.18677284075898        0.0000000000000000        10.000000000000000        0.0000000000000000     
   2340.0000000000000        307.24947041411554        0.0000000000000000        10.000000000000000        0.0000000000000000     
   2360.0000000000000        307.31218078420056        0.0000000000000000        10.000000000000000        0.0000000000000000     
   2380.0000000000000        307.37490395362579        0.0000000000000000        10.000000000000000        0.0000000000000000     
   2400.0000000000000        307.43763992500368        0.0000000000000000        10.000000000000000        0.0000000000000000     
   2420.0000000000000        307.50038870094704        0.0000000000000000        10.000000000000000        0.0000000000000000     
   2440.0000000000000        307.56315028406954        0.0000000000000000        10.000000000000000        0.0000000000000000     
   2460.0000000000000        307.62592467698488        0.0000000000000000        10.000000000000000        0.0000000000000000     
   2480.0000000000000        307.68871188230776        0.0000000000000000        10.000000000000000        0.0000000000000000     
   2500.0000000000000        307.75151190265314        0.0000000000000000        10.000000000000000        0.0000000000000000     
   2520.0000000000000        307.81432474063661        0.0000000000000000        10.000000000000000        0.0000000000000000     
   2540.0000000000000        307.87715039887428        0.0000000000000000        10.000000000000000        0.0000000000000000     
   2560.0000000000000        307.93998887998282        0.0000000000000000        10.000000000000000        0.0000000000000000     
   2580.0000000000000        308.00284018657936        0.0000000000000000        10.000000000000000        0.0000000000000000     
   2600.0000000000000        308.06570432128171        0.0000000000000000        10.000000000000000        0.0000000000000000     
   2620.0000000000000        308.12858128670797        0.0000000000000000        10.000000000000000        0.0000000000000000     
   2640.0000000000000        308.19147108547713        0.0000000000000000        10.000000000000000        0.0000000000000000     
   2660.0000000000000        308.25437372020832        0.0000000000000000        10.000000000000000        0.0000000000000000     
   2680.0000000000000        308.31728919352139        0.0000000000000000        10.000000000000000        0.0000000000000000     
   2700.0000000000000        308.38021750803688        0.0000000000000000        10.000000000000000        0.0000000000000000     
   2720.0000000000000        308.44315866637561        0.0000000000000000        10.000000000000000        0.0000000000000000     
   2740.0000000000000        308.50611267115897        0.0000000000000000        10.000000000000000        0.0000000000000000     
   2760.0000000000000        308.56907952500910        0.0000000000000000        10.000000000000000        0.0000000000000000     
   2780.0000000000000        308.63205923054841        0.0000000000000000        10.000000000000000        0.0000000000000000     
   2800.0000000000000        308.69505179040004        0.0000000000000000        10.000000000000000        0.0000000000000000     
   2820.0000000000000        308.75805720718756        0.0000000000000000        10.000000000000000        0.0000000000000000     
   2840.0000000000000        308.82107548353508        0.0000000000000000        10.000000000000000        0.0000000000000000     
   2860.0000000000000        308.88410662206729        0.0000000000000000        10.000000000000000        0.0000000000000000     
   2880.0000000000000        308.94715062540934        0.0000000000000000        10.000000000000000        0.0000000000000000     
   2900.0000000000000        309.01020749618704        0.0000000000000000        10.000000000000000        0.0000000000000000     
   2920.0000000000000        309.07327723702667        0.0000000000000000        10.000000000000000        0.0000000000000000     
   2940.0000000000000        309.13635985055498        0.0000000000000000        10.000000000000000        0.0000000000000000     
   2960.0000000000000        309.19945533939938        0.0000000000000000        10.000000000000000        0.0000000000000000     
   2980.0000000000000        309.26256370618768        0.0000000000000000        10.000000000000000        0.0000000000000000     
   3000.0000000000000        309.32568495354838        0.0000000000000000        10.000000000000000        0.0000000000000000     
   3020.0000000000000        309.38881908411037        0.0000000000000000        10.000000000000000        0.0000000000000000     
   3040.0000000000000        309.45196610050317        0.0000000000000000        10.000000000000000        0.0000000000000000     
   3060.0000000000000        309.51512600535682        0.0000000000000000        10.000000000000000        0.0000000000000000     
   3080.0000000000000        309.57829880130191        0.0000000000000000        10.000000000000000        0.0000000000000000     
   3100.0000000000000        309.64148449096945        0.0000000000000000        10.000000000000000        0.0000000000000000     
   3120.0000000000000        309.70468307699110        0.0000000000000000        10.000000000000000        0.0000000000000000     
   3140.0000000000000        309.76789456199919        0.0000000000000000        10.000000000000000        0.0000000000000000     
   3160.0000000000000        309.83111894862628        0.0000000000000000        10.000000000000000        0.0000000000000000     
   3180.0000000000000        309.89435623950567        0.0000000000000000        10.000000000000000        0.0000000000000000     
   3200.0000000000000        309.95760643727112        0.0000000000000000        10.000000000000000        0.0000000000000000     
   3220.0000000000000        310.02086954455706        0.0000000000000000        10.000000000000000        0.0000000000000000     
   3240.0000000000000        310.08414556399816        0.0000000000000000        10.000000000000000        0.0000000000000000     
   3260.0000000000000        310.14743449823004        0.0000000000000000        10.000000000000000        0.0000000000000000     
   3280.0000000000000        310.21073634988846        0.0000000000000000        10.000000000000000        0.0000000000000000     
   3300.0000000000000        310.27405112161006        0.0000000000000000        10.000000000000000        0.0000000000000000     
   3320.0000000000000        310.33737881603173        0.0000000000000000        10.000000000000000        0.0000000000000000     
   3340.0000000000000        310.40071943579107        0.0000000000000000        10.000000000000000        0.0000000000000000     
   3360.0000000000000        310.46407298352614        0.0000000000000000        10.000000000000000        0.0000000000000000     
   3380.0000000000000        310.52743946187564        0.0000000000000000        10.000000000000000        0.0000000000000000     
   3400.0000000000000        310.59081887347872        0.0000000000000000        10.000000000000000        0.0000000000000000     
   3420.0000000000000        310.65421122097501        0.0000000000000000        10.000000000000000        0.0000000000000000     
   3440.0000000000000        310.71761650700489        0.0000000000000000        10.000000000000000        0.0000000000000000     
   3460.0000000000000        310.78103473420907        0.0000000000000000        10.000000000000000        0.0000000000000000     
   3480.0000000000000        310.84446590522884        0.0000000000000000        10.000000000000000        0.0000000000000000     
   3500.0000000000000        310.90791002270612        0.0000000000000000        10.000000000000000        0.0000000000000000     
   3520.0000000000000        310.97136708928332        0.0000000000000000        10.000000000000000        0.0000000000000000     
   3540.0000000000000        311.03483710760338        0.0000000000000000        10.000000000000000        0.0000000000000000     
   3560.0000000000000        311.09832008030969        0.0000000000000000        10.000000000000000        0.0000000000000000     
   3580.0000000000000        311.16181601004638        0.0000000000000000        10.000000000000000        0.0000000000000000     
   3600.0000000000000        311.22532489945797        0.0000000000000000        10.000000000000000        0.0000000000000000     
   3620.0000000000000        311.28884675118962        0.0000000000000000        10.000000000000000        0.0000000000000000     
   3640.0000000000000        311.35238156788694        0.0000000000000000        10.000000000000000        0.0000000000000000     
   3660.0000000000000        311.41592935219603        0.0000000000000000        10.000000000000000        0.0000000000000000     
   3680.0000000000000        311.47949010676371        0.0000000000000000        10.000000000000000        0.0000000000000000     
   3700.0000000000000        311.54306383423716        0.0000000000000000        10.000000000000000        0.0000000000000000     
   3720.0000000000000        311.60665053726427        0.0000000000000000        10.000000000000000        0.0000000000000000     
   3740.0000000000000        311.67025021849338        0.0000000000000000        10.000000000000000        0.0000000000000000     
   3760.0000000000000        311.73386288057327        0.0000000000000000        10.000000000000000        0.0000000000000000     
   3780.0000000000000        311.79748852615342        0.0000000000000000        10.000000000000000        0.0000000000000000     
   3800.0000000000000        311.86112715788386        0.0000000000000000        10.000000000000000        0.0000000000000000     
   3820.0000000000000        311.92477877841492        0.0000000000000000        10.000000000000000        0.0000000000000000     
   3840.0000000000000        311.98844339039789        0.0000000000000000        10.000000000000000        0.0000000000000000     
   3860.0000000000000        312.05212099648418        0.0000000000000000        10.000000000000000        0.0000000000000000     
   3880.0000000000000        312.11581159932598        0.0000000000000000        10.000000000000000        0.0000000000000000     
   3900.0000000000000        312.17951520157590        0.0000000000000000        10.000000000000000        0.0000000000000000     
   3920.0000000000000        312.24323180588726        0.0000000000000000        10.000000000000000        0.0000000000000000     
   3940.0000000000000        312.30696141491370        0.0000000000000000        10.000000000000000        0.0000000000000000     
   3960.0000000000000        312.37070403130963        0.0000000000000000        10.000000000000000        0.0000000000000000     
   3980.0000000000000        312.43445965772975        0.0000000000000000        10.000000000000000        0.0000000000000000     
   4000.0000000000000        312.49822829682961        0.0000000000000000        10.000000000000000        0.0000000000000000     
   4020.0000000000000        312.56200995126488        0.0000000000000000        10.000000000000000        0.0000000000000000     
   4040.0000000000000        312.62580462369226        0.0000000000000000        10.000000000000000        0.0000000000000000     
   4060.0000000000000        312.68961231676866        0.0000000000000000        10.000000000000000        0.0000000000000000     
   4080.0000000000000        312.75343303315162        0.0000000000000000        10.000000000000000        0.0000000000000000     
   4100.0000000000000        312.81726677549926        0.0000000000000000        10.000000000000000        0.0000000000000000     
   4120.0000000000000        312.88111354647020        0.0000000000000000        10.000000000000000        0.0000000000000000     
   4140.0000000000000        312.94497334872358        0.0000000000000000        10.000000000000000        0.0000000000000000     
   4160.0000000000000        313.00884618491915        0.0000000000000000        10.000000000000000        0.0000000000000000     
   4180.0000000000000        313.07273205771713        0.0000000000000000        10.000000000000000        0.0000000000000000     
   4200.0000000000000        313.13663096977842        0.0000000000000000        10.000000000000000        0.0000000000000000     
   4220.0000000000000        313.20054292376420        0.0000000000000000        10.000000000000000        0.0000000000000000     
   4240.0000000000000        313.26446792233656        0.0000000000000000        10.000000000000000        0.0000000000000000     
   4260.0000000000000        313.32840596815782        0.0000000000000000        10.000000000000000        0.0000000000000000     
   4280.0000000000000        313.39235706389093        0.0000000000000000        10.000000000000000        0.0000000000000000     
   4300.0000000000000        313.45632121219944        0.0000000000000000        10.000000000000000        0.0000000000000000     
   4320.0000000000000        313.52029841574745        0.0000000000000000        10.000000000000000        0.0000000000000000     
   4340.0000000000000        313.58428867719948        0.0000000000000000        10.000000000000000        0.0000000000000000     
   4360.0000000000000        313.64829199922076        0.0000000000000000        10.000000000000000        0.0000000000000000     
   4380.0000000000000        313.71230838447701        0.0000000000000000        10.000000000000000        0.0000000000000000     
   4400.0000000000000        313.77633783563431        0.0000000000000000        10.000000000000000        0.0000000000000000     
   4420.0000000000000        313.84038035535968        0.0000000000000000        10.000000000000000        0.0000000000000000     
   4440.0000000000000        313.90443594632018        0.0000000000000000        10.000000000000000        0.0000000000000000     
   4460.0000000000000        313.96850461118396        0.0000000000000000        10.000000000000000        0.0000000000000000     
   4480.0000000000000        314.03258635261921        0.0000000000000000        10.000000000000000        0.0000000000000000     
   4500.0000000000000        314.09668117329500        0.0000000000000000        10.000000000000000        0.0000000000000000     
   4520.0000000000000        314.16078907588076        0.0000000000000000        10.000000000000000        0.0000000000000000     
   4540.0000000000000        314.22491006304665        0.0000000000000000        10.000000000000000        0.0000000000000000     