1000.0 290.0  0.0
   0.0 290.0  0.0 5.0 0.0
 920.0 292.76 0.0 5.0 0.0
