 1017.8  289.0  0.0
    0.0  289.0  0.0  5.0  0.0
 5000.0  289.0  0.0  5.0  0.0
