1018.20001 300.802124 17.6558151
   0.00000000       300.802124       17.6558151       0.00000000       0.00000000
   7.30000019       300.471191       17.1389217       0.00000000       0.00000000
  69.0000000       300.763031       16.9343319       0.00000000       0.00000000
 119.699997       300.948059       16.6139927       0.00000000       0.00000000
 161.000000       301.149994       16.5937805       0.00000000       0.00000000
 200.699997       301.127777       16.0687809       0.00000000       0.00000000
 241.899994       301.224243       16.1159172       0.00000000       0.00000000
 355.299988       301.216736       15.8446932       0.00000000       0.00000000
 389.200012       301.349060       16.0461082       0.00000000       0.00000000
 429.000000       301.334015       16.0603275       0.00000000       0.00000000
 462.700012       301.359009       16.1310635       0.00000000       0.00000000
 500.000000       301.411652       16.2222271       0.00000000       0.00000000
 544.799988       301.445312       15.7341270       0.00000000       0.00000000
 586.099976       301.444336       15.7327604       0.00000000       0.00000000
 632.400024       301.489838       15.8316708       0.00000000       0.00000000
 670.900024       301.566376       15.6739969       0.00000000       0.00000000
 720.299988       301.541168       15.6126022       0.00000000       0.00000000
 766.400024       301.582855       15.6880274       0.00000000       0.00000000
 813.500000       301.635681       15.7195263       0.00000000       0.00000000
 848.700012       301.783966       15.3929567       0.00000000       0.00000000
 895.400024       301.831268       15.3121090       0.00000000       0.00000000
 936.799988       302.038971       15.0039473       0.00000000       0.00000000
 975.200012       302.212280       13.9601297       0.00000000       0.00000000
 1014.90002       302.406067       13.0915432       0.00000000       0.00000000
 1048.30005       302.533478       13.0151777       0.00000000       0.00000000
 1085.30005       302.587769       12.9478703       0.00000000       0.00000000
 1121.40002       302.633759       12.8447485       0.00000000       0.00000000
 1155.80005       302.774536       12.7537727       0.00000000       0.00000000
 1190.59998       302.813354       12.6170931       0.00000000       0.00000000
 1228.00000       302.976074       12.5787506       0.00000000       0.00000000
 1260.50000       303.101929       12.2303677       0.00000000       0.00000000
 1301.90002       303.516052       11.5981989       0.00000000       0.00000000
 1342.09998       303.712646       11.8745155       0.00000000       0.00000000
 1378.69995       303.976379       11.7711849       0.00000000       0.00000000
 1423.80005       304.321503       11.8382101       0.00000000       0.00000000
 1461.50000       304.600098       11.4513798       0.00000000       0.00000000
 1511.50000       305.001495       11.3354750       0.00000000       0.00000000
 1544.00000       305.013916       11.0715761       0.00000000       0.00000000
 1584.40002       305.108185       11.1000338       0.00000000       0.00000000
 1626.59998       305.224701       11.1127253       0.00000000       0.00000000
 1665.80005       305.417419       11.0238848       0.00000000       0.00000000
 1707.00000       305.517181       10.9568405       0.00000000       0.00000000
 1746.69995       305.502747       10.9205008       0.00000000       0.00000000
 1777.09998       305.490204       10.8797073       0.00000000       0.00000000
 1813.69995       305.552002       10.8605404       0.00000000       0.00000000
 1851.09998       305.614838       10.9227018       0.00000000       0.00000000
 1882.09998       305.826660       11.0451574       0.00000000       0.00000000
 1921.90002       306.020538       10.8312254       0.00000000       0.00000000
 1948.09998       306.076813       10.6302567       0.00000000       0.00000000
 1981.30005       306.206787       10.9943638       0.00000000       0.00000000
 2009.30005       306.284729       11.1703596       0.00000000       0.00000000
 2038.50000       306.473297       10.5360556       0.00000000       0.00000000
 2069.19995       306.908173       10.0120497       0.00000000       0.00000000
 2098.00000       307.203156       10.0190668       0.00000000       0.00000000
 2126.00000       307.380981       10.1888962       0.00000000       0.00000000
 2157.10010       307.487030       10.1613197       0.00000000       0.00000000
 2189.00000       307.498657       10.0558510       0.00000000       0.00000000
 2223.00000       307.748444       9.75664711       0.00000000       0.00000000
 2255.80005       307.763733       9.36001015       0.00000000       0.00000000
 2285.19995       307.862823       9.37401867       0.00000000       0.00000000
 2315.50000       307.961334       9.70287228       0.00000000       0.00000000
 2346.19995       308.169342       9.82584381       0.00000000       0.00000000
 2382.10010       308.221985       9.60146141       0.00000000       0.00000000
 2416.10010       308.359711       9.58839321       0.00000000       0.00000000
 2448.50000       308.367554       9.66682625       0.00000000       0.00000000
 2482.30005       308.506409       9.90318871       0.00000000       0.00000000
 2512.00000       308.493591       9.89704990       0.00000000       0.00000000
 2552.19995       308.705811       9.88516045       0.00000000       0.00000000
 2580.69995       308.673157       9.63056850       0.00000000       0.00000000
 2616.19995       308.831055       9.45281219       0.00000000       0.00000000
 2651.19995       308.989899       9.37925243       0.00000000       0.00000000
 2685.39990       309.344086       9.30363178       0.00000000       0.00000000
 2716.69995       309.568787       9.01652336       0.00000000       0.00000000
 2751.80005       309.830292       8.80243778       0.00000000       0.00000000
 2784.69995       310.069641       8.57590961       0.00000000       0.00000000
 2942.19995       311.642334       7.49807358       0.00000000       0.00000000
 2973.39990       311.745331       7.14378023       0.00000000       0.00000000
 3010.50000       311.812439       6.99994373       0.00000000       0.00000000
 3041.30005       311.927216       7.08668947       0.00000000       0.00000000
 3078.19995       311.886017       7.06955481       0.00000000       0.00000000
 3116.19995       312.177277       7.01110506       0.00000000       0.00000000
 3156.39990       312.385040       7.00384998       0.00000000       0.00000000
 3190.19995       312.529938       7.19123125       0.00000000       0.00000000
 3225.80005       312.690918       7.11476851       0.00000000       0.00000000
 3268.00000       312.920837       6.59955359       0.00000000       0.00000000
 3301.50000       313.171692       6.37541246       0.00000000       0.00000000
 3337.39990       313.337952       6.28628874       0.00000000       0.00000000
 3375.89990       313.641144       6.46654510       0.00000000       0.00000000
 3414.39990       313.837250       6.35863781       0.00000000       0.00000000
 3451.60010       314.019653       6.57153940       0.00000000       0.00000000
 3485.50000       314.165192       6.64818048       0.00000000       0.00000000
 3526.30005       314.492920       6.42749071       0.00000000       0.00000000
 3556.80005       314.714355       6.42726517       0.00000000       0.00000000
 3600.69995       314.976532       5.97308826       0.00000000       0.00000000
 3638.50000       315.382599       5.80367136       0.00000000       0.00000000
 3672.00000       315.635406       5.91494513       0.00000000       0.00000000
 3708.10010       315.692841       5.92597818       0.00000000       0.00000000
 3742.89990       315.625885       5.85562086       0.00000000       0.00000000
 3783.89990       315.628540       5.81702375       0.00000000       0.00000000
 3819.19995       315.676636       5.78542137       0.00000000       0.00000000
 3856.19995       315.739777       5.77183056       0.00000000       0.00000000
 3896.89990       315.847565       5.61935854       0.00000000       0.00000000
 3937.30005       316.070007       5.55190182       0.00000000       0.00000000
 3962.69995       316.125458       5.45769548       0.00000000       0.00000000
 4001.39990       316.323547       5.33920431       0.00000000       0.00000000
 4039.80005       316.638550       5.11475134       0.00000000       0.00000000
 4072.50000       316.884003       4.91293716       0.00000000       0.00000000
 4106.89990       317.044403       4.84022093       0.00000000       0.00000000
 4139.79980       317.177826       4.73370790       0.00000000       0.00000000
 4176.29980       317.245941       4.19871140       0.00000000       0.00000000
 4209.79980       317.514618       3.76385307       0.00000000       0.00000000
 4250.60010       317.746948       3.02111936       0.00000000       0.00000000
 4288.50000       317.816986       2.82084465       0.00000000       0.00000000
 4320.50000       318.073669       2.67037988       0.00000000       0.00000000
 4356.39990       318.129883       2.68010235       0.00000000       0.00000000
 4393.00000       318.071320       2.76807880       0.00000000       0.00000000
 4424.60010       318.315430       2.83488798       0.00000000       0.00000000
 4456.00000       318.547302       2.78035736       0.00000000       0.00000000
 4494.29980       318.762817       2.09088874       0.00000000       0.00000000
 4524.70020       318.863678       2.32686687       0.00000000       0.00000000
 4557.39990       319.120514       1.80521202       0.00000000       0.00000000
 4581.29980       319.284637       1.46862555       0.00000000       0.00000000
 4674.50000       319.263641       3.87186384       0.00000000       0.00000000
 4681.70020       319.675964       5.22724724       0.00000000       0.00000000
 4712.89990       319.804932       4.97531509       0.00000000       0.00000000
 4742.89990       320.149719       5.02252340       0.00000000       0.00000000
 4784.60010       320.390411       4.93413115       0.00000000       0.00000000
 4810.89990       320.694092       4.73246479       0.00000000       0.00000000
 4844.10010       321.178436       4.67933559       0.00000000       0.00000000
 4875.89990       321.430206       4.63602257       0.00000000       0.00000000
 4906.89990       321.667389       4.59924126       0.00000000       0.00000000
 4942.39990       321.954803       4.55807686       0.00000000       0.00000000
 4975.20020       322.212372       4.45238733       0.00000000       0.00000000
 5009.10010       322.369507       4.40006447       0.00000000       0.00000000
 5045.10010       322.426849       4.33121347       0.00000000       0.00000000
 5077.60010       322.570679       4.27269411       0.00000000       0.00000000
 5115.60010       322.647400       4.21967697       0.00000000       0.00000000
 5145.60010       322.878326       4.24459887       0.00000000       0.00000000
 5185.10010       322.974640       4.22481251       0.00000000       0.00000000
 5219.29980       323.021820       4.24039984       0.00000000       0.00000000
 5256.70020       323.087891       4.21080875       0.00000000       0.00000000
 5296.00000       323.308777       4.16984272       0.00000000       0.00000000
 5330.79980       323.360840       4.16988611       0.00000000       0.00000000
 5368.79980       323.551727       4.10956907       0.00000000       0.00000000
 5406.20020       323.744293       4.06800079       0.00000000       0.00000000
 5444.10010       323.836304       4.03892851       0.00000000       0.00000000
 5482.29980       324.032684       4.00383329       0.00000000       0.00000000
 5520.10010       324.129669       3.88870549       0.00000000       0.00000000
 5561.60010       324.125671       3.79342532       0.00000000       0.00000000
 5596.20020       324.172394       3.73625517       0.00000000       0.00000000
 5644.70020       324.380615       3.70775294       0.00000000       0.00000000
 5675.79980       324.496979       3.71439123       0.00000000       0.00000000
 5711.39990       324.566162       3.68997574       0.00000000       0.00000000
 5746.60010       324.740082       3.65602756       0.00000000       0.00000000
 5786.39990       324.970459       3.61937356       0.00000000       0.00000000
 5821.60010       325.131134       3.50413609       0.00000000       0.00000000
 5858.70020       325.328674       3.49775124       0.00000000       0.00000000
 5896.10010       325.529358       3.41657043       0.00000000       0.00000000
 5933.89990       325.853516       3.36724997       0.00000000       0.00000000
 5968.20020       326.266907       3.17316818       0.00000000       0.00000000
 5999.39990       326.642609       3.14103436       0.00000000       0.00000000
 6035.89990       326.832642       3.08805108       0.00000000       0.00000000
 6069.60010       327.110046       2.97419620       0.00000000       0.00000000
 6101.00000       327.494385       2.76387262       0.00000000       0.00000000
 6138.39990       327.814789       2.60789371       0.00000000       0.00000000
 6167.70020       327.917847       2.46571302       0.00000000       0.00000000
 6210.29980       328.197388       2.27776074       0.00000000       0.00000000
 6241.60010       328.321533       2.22802782       0.00000000       0.00000000
 6274.29980       328.464386       2.32099009       0.00000000       0.00000000
 6298.89990       328.508301       2.54413748       0.00000000       0.00000000
 6342.60010       328.544342       2.65325046       0.00000000       0.00000000
 6370.70020       328.633606       2.64873433       0.00000000       0.00000000
 6406.00000       328.681732       2.51553392       0.00000000       0.00000000
 6437.70020       328.960388       2.33553195       0.00000000       0.00000000
 6472.70020       329.134918       2.27069950       0.00000000       0.00000000
 6508.89990       329.563232       2.02383590       0.00000000       0.00000000
 6542.70020       329.989227       2.06805944       0.00000000       0.00000000
 6579.60010       330.067139       1.91381824       0.00000000       0.00000000
 6617.50000       330.146088       1.80247319       0.00000000       0.00000000
 6655.50000       330.349854       1.81633866       0.00000000       0.00000000
 6695.89990       330.345154       1.91971898       0.00000000       0.00000000
 6731.29980       330.534363       1.80605435       0.00000000       0.00000000
 6770.39990       330.636902       1.98181474       0.00000000       0.00000000
 6800.60010       330.745483       1.87623835       0.00000000       0.00000000
 6841.60010       331.129395       1.79761398       0.00000000       0.00000000
 6883.00000       331.135132       1.87195265       0.00000000       0.00000000
 6914.79980       331.270111       1.76009583       0.00000000       0.00000000
 6954.60010       331.513428       1.70430481       0.00000000       0.00000000
 6993.60010       331.610840       1.65050125       0.00000000       0.00000000
 7037.79980       331.646271       1.73845625       0.00000000       0.00000000
 7073.00000       331.829865       1.75361073       0.00000000       0.00000000
 7121.79980       332.196869       1.51175189       0.00000000       0.00000000
 7153.50000       332.471161       1.37486970       0.00000000       0.00000000
 7196.39990       332.601532       1.35936213       0.00000000       0.00000000
 7240.60010       332.778748       1.37112772       0.00000000       0.00000000
 7281.29980       332.891449       1.36142874       0.00000000       0.00000000
 7328.70020       332.991638       1.36441135       0.00000000       0.00000000
 7369.00000       332.980591       1.35841131       0.00000000       0.00000000
 7412.79980       333.017639       1.34626341       0.00000000       0.00000000
 7453.79980       333.011169       1.31256187       0.00000000       0.00000000
 7497.50000       333.181335       1.33391297       0.00000000       0.00000000
 7533.89990       333.365631       1.40043402       0.00000000       0.00000000
 7576.20020       333.388519       1.39555764       0.00000000       0.00000000
 7617.79980       333.519409       1.40650082       0.00000000       0.00000000
 7661.39990       333.547638       1.36814547       0.00000000       0.00000000
 7704.10010       333.974121       1.06525123       0.00000000       0.00000000
 7739.70020       334.305023      0.891421676       0.00000000       0.00000000
 7777.89990       334.527039      0.971546590       0.00000000       0.00000000
 7818.00000       334.643250       1.14257073       0.00000000       0.00000000
 7856.39990       334.740234       1.16699421       0.00000000       0.00000000
 7893.00000       334.946564       1.15063226       0.00000000       0.00000000
 7935.50000       335.230042       1.11837924       0.00000000       0.00000000
 7971.60010       335.417603       1.04001129       0.00000000       0.00000000
 8013.29980       335.577576      0.888065219       0.00000000       0.00000000
 8053.00000       335.689362      0.757382751       0.00000000       0.00000000
 8089.29980       335.880554      0.818652153       0.00000000       0.00000000
 8122.20020       336.180695      0.872017503       0.00000000       0.00000000
 8163.60010       336.322906      0.834707975       0.00000000       0.00000000
 8200.00000       336.522705      0.802550554       0.00000000       0.00000000
 8238.79980       336.618988      0.717379391       0.00000000       0.00000000
 8267.50000       336.884094      0.397611469       0.00000000       0.00000000
 8304.40039       337.092957      0.242798612       0.00000000       0.00000000
 8339.00000       337.142548      0.167409882       0.00000000       0.00000000
 8379.40039       337.405701      0.149102196       0.00000000       0.00000000
 8408.09961       337.377502      0.143836796       0.00000000       0.00000000
 8451.50000       337.672180      0.124409311       0.00000000       0.00000000
 8481.20020       337.673981      0.110115558       0.00000000       0.00000000
 8516.59961       337.730316      0.132362276       0.00000000       0.00000000
 8548.29980       337.734589      0.125775024       0.00000000       0.00000000
 8585.90039       337.822174      0.117696658       0.00000000       0.00000000
 8623.29980       337.911285      0.132942617       0.00000000       0.00000000
 8653.20020       338.027252      0.134636834       0.00000000       0.00000000
 8698.70020       337.960663      0.154875651       0.00000000       0.00000000
 8724.90039       338.023682      0.174252301       0.00000000       0.00000000
 8764.59961       338.148254      0.194970593       0.00000000       0.00000000
 8798.79980       338.326508      0.214868262       0.00000000       0.00000000
 8846.40039       338.433105      0.244546086       0.00000000       0.00000000
 8883.29980       338.508057      0.275823683       0.00000000       0.00000000
 8956.20020       338.938904      0.264310777       0.00000000       0.00000000
 8993.70020       338.884369      0.253348947       0.00000000       0.00000000
 9028.20020       339.076050      0.255681813       0.00000000       0.00000000
 9063.00000       338.994751      0.286298275       0.00000000       0.00000000
 9098.20020       339.188904      0.346345276       0.00000000       0.00000000
 9171.50000       339.339813      0.393539101       0.00000000       0.00000000
 9204.59961       339.787567      0.405802637       0.00000000       0.00000000
 9242.40039       340.437164      0.391837239       0.00000000       0.00000000
 9275.20020       340.862335      0.332375407       0.00000000       0.00000000
 9316.90039       341.026154      0.300555885       0.00000000       0.00000000
 9353.59961       341.100250      0.291307241       0.00000000       0.00000000
 9396.70020       340.990845      0.283512443       0.00000000       0.00000000
 9434.70020       341.239105      0.283437997       0.00000000       0.00000000
 9473.09961       341.211456      0.274593502       0.00000000       0.00000000
 9518.70020       341.527954      0.268871307       0.00000000       0.00000000
 9561.50000       341.568604      0.251664460       0.00000000       0.00000000
 9596.20020       341.624817      0.237145498       0.00000000       0.00000000
 9633.40039       341.574677      0.214782715       0.00000000       0.00000000
 9668.50000       341.775482      0.184683278       0.00000000       0.00000000
 9716.70020       342.281891      0.131094411       0.00000000       0.00000000
10129.2998       344.458771       2.78000329E-02   0.00000000       0.00000000
11122.2998       345.768829       1.19985612E-02   0.00000000       0.00000000
12225.2998       347.542847       1.47983776E-02   0.00000000       0.00000000
13185.5000       351.012604       2.05849186E-02   0.00000000       0.00000000
14690.0000       354.403168       5.88690909E-03   0.00000000       0.00000000
15513.7998       361.255676       3.41479038E-03   0.00000000       0.00000000
16041.0996       372.070648       4.07035975E-03   0.00000000       0.00000000
16667.4004       388.938690       6.30224729E-03   0.00000000       0.00000000
18000.0000       400.852600       9.72340146E-03   0.00000000       0.00000000

