1015. 297.9 16.0
     0 297.9 16.0  0.0 0.0
   740 297.9 13.8 0.0 0.0
  3260 312.66 2.4 0.0 0.0

