1000.0 290.0 0.0
   0.0 290.0 0.0 13.682277496961293 1.4776354313930213
 700.0 290.0 0.0 13.682277496961293 1.4776354313930213
 800.0 298.0 0.0 13.682277496961293 1.4776354313930213
1800.0 301.0 0.0 13.682277496961293 1.4776354313930213
